LAMMPS (22 Jul 2025 - Update 2)
KOKKOS mode with Kokkos version 4.6.2 is enabled
  will use up to 1 GPU(s) per node
package kokkos

# Grid Search Phase 2: Sigma_ratio=0.7, Epsilon_ratio=3.0
# KOKKOS Initialization (CRITICAL: Must be first)
package         kokkos neigh full newton off

units           real
atom_style      atomic
boundary        p p p

read_data       inputs/data.ga_base_2types
Reading data file ...
  orthogonal box = (0 0 0) to (26.762877 26.762877 26.762877)
  reading atoms ...
  1000 atoms

# Randomize types (50% Type 2)
set             group all type/fraction 2 0.5 12345
Setting atom values ...
  508 settings made for type/fraction

# Force Field
pair_style      lj/cut/kk 12.0
pair_coeff      1 1 0.4300 2.7000
pair_coeff      2 2 1.2900 1.8900
pair_coeff      1 2 0.7448 2.2950

# Settings
neighbor        2.0 bin
neigh_modify    delay 0 every 1 check yes
velocity        all create 423.15 1000 dist gaussian

thermo          1000
thermo_style    custom step temp press density

# Minimization
minimize        1.0e-4 1.0e-6 10000 100000
Generated 0 of 1 mixed pair_coeff terms from geometric mixing rule
Step          Temp          Press         Density
0   423.15         1.5887791e+15  6.0398583
Loop time of 0.328402 on 1 procs for 435 steps with 1000 atoms

Minimization stats:
  Stopping criterion = energy tolerance
  Energy initial, next-to-last, final =
  Force two-norm initial, final = 9.9294847e+15 8.3880958
  Force max component initial, final = 5.581074e+15 3.3290378
  Final line search alpha, max atom move = 0.027591329 0.091852578
  Iterations, force evaluations = 435 666

reset_timestep  0

# Equilibration (50000 steps - same as reference)
timestep        2.0
fix             nvt all nvt temp 423.15 423.15 100.0
run             50000
Generated 0 of 1 mixed pair_coeff terms from geometric mixing rule
Step          Temp          Press         Density
0   423.15        -148.18789      6.0398583
Averages over the last 26 of 51 rows, steps 25000 to 50000:
Temp Press Density
423.163 2048.42 6.03986
Loop time of 18.862 on 1 procs for 50000 steps with 1000 atoms

unfix           nvt
reset_timestep  0

# Production (100000 steps - same as reference)
fix             nvt all nvt temp 423.15 423.15 100.0
compute         myrdf all rdf 200 1 1 2 2 1 2 cutoff 12.0
# Consistent averaging over full run (Nevery=100, Nrepeat=1000, Nfreq=100000)
fix             rdfout all ave/time 100 1000 100000 c_myrdf[*] file grid_outputs/out_s70_e300.rdf mode vector

run             100000
Generated 0 of 1 mixed pair_coeff terms from geometric mixing rule
Step          Temp          Press         Density
0   428.44317      2309.1859      6.0398583
Averages over the last 51 of 101 rows, steps 50000 to 100000:
Temp Press Density
422.969 2364.72 6.03986
Loop time of 69.9585 on 1 procs for 100000 steps with 1000 atoms
