LAMMPS (22 Jul 2025 - Update 2)
KOKKOS mode with Kokkos version 4.6.2 is enabled
  will use up to 1 GPU(s) per node
package kokkos

# Grid Search Phase 2: Sigma_ratio=0.75, Epsilon_ratio=3.0
# KOKKOS Initialization (CRITICAL: Must be first)
package         kokkos neigh full newton off

units           real
atom_style      atomic
boundary        p p p

read_data       inputs/data.ga_base_2types
Reading data file ...
  orthogonal box = (0 0 0) to (26.762877 26.762877 26.762877)
  reading atoms ...
  1000 atoms

# Randomize types (50% Type 2)
set             group all type/fraction 2 0.5 12345
Setting atom values ...
  508 settings made for type/fraction

# Force Field
pair_style      lj/cut/kk 12.0
pair_coeff      1 1 0.4300 2.7000
pair_coeff      2 2 1.2900 2.0250
pair_coeff      1 2 0.7448 2.3625

# Settings
neighbor        2.0 bin
neigh_modify    delay 0 every 1 check yes
velocity        all create 423.15 1050 dist gaussian

thermo          1000
thermo_style    custom step temp press density

# Minimization
minimize        1.0e-4 1.0e-6 10000 100000
Generated 0 of 1 mixed pair_coeff terms from geometric mixing rule
Step          Temp          Press         Density
0   423.15         2.1836927e+15  6.0398583
Loop time of 0.326553 on 1 procs for 433 steps with 1000 atoms

Minimization stats:
  Stopping criterion = energy tolerance
  Energy initial, next-to-last, final =
  Force two-norm initial, final = 1.4041642e+16 7.450418
  Force max component initial, final = 7.902915e+15 1.8364393
  Final line search alpha, max atom move = 0.028293822 0.051959886
  Iterations, force evaluations = 433 657

reset_timestep  0

# Equilibration (50000 steps - same as reference)
timestep        2.0
fix             nvt all nvt temp 423.15 423.15 100.0
run             50000
Generated 0 of 1 mixed pair_coeff terms from geometric mixing rule
Step          Temp          Press         Density
0   423.15        -12.686865      6.0398583
Averages over the last 26 of 51 rows, steps 25000 to 50000:
Temp Press Density
421.187 2637.65 6.03986
Loop time of 18.6897 on 1 procs for 50000 steps with 1000 atoms

unfix           nvt
reset_timestep  0

# Production (100000 steps - same as reference)
fix             nvt all nvt temp 423.15 423.15 100.0
compute         myrdf all rdf 200 1 1 2 2 1 2 cutoff 12.0
# Consistent averaging over full run (Nevery=100, Nrepeat=1000, Nfreq=100000)
fix             rdfout all ave/time 100 1000 100000 c_myrdf[*] file grid_outputs/out_s75_e300.rdf mode vector

run             100000
Generated 0 of 1 mixed pair_coeff terms from geometric mixing rule
Step          Temp          Press         Density
0   443.783        3627.6039      6.0398583
Averages over the last 51 of 101 rows, steps 50000 to 100000:
Temp Press Density
420.412 2910.59 6.03986
Loop time of 69.2437 on 1 procs for 100000 steps with 1000 atoms
