LAMMPS (22 Jul 2025 - Update 2)
KOKKOS mode with Kokkos version 4.6.2 is enabled
  will use up to 1 GPU(s) per node
package kokkos

# Grid Search Phase 1: Sigma_ratio=0.9, Epsilon_ratio=1.25
# KOKKOS Initialization (CRITICAL: Must be first)
package         kokkos neigh full newton off

units           real
atom_style      atomic
boundary        p p p

read_data       inputs/data.ga_base_2types
Reading data file ...
  orthogonal box = (0 0 0) to (26.762877 26.762877 26.762877)
  reading atoms ...
  1000 atoms

# Randomize types (50% Type 2)
set             group all type/fraction 2 0.5 12345
Setting atom values ...
  508 settings made for type/fraction

# Force Field
pair_style      lj/cut/kk 12.0
pair_coeff      1 1 0.4300 2.7000
pair_coeff      2 2 0.5375 2.4300
pair_coeff      1 2 0.4808 2.5650

# Settings
neighbor        2.0 bin
neigh_modify    delay 0 every 1 check yes
velocity        all create 423.15 1025 dist gaussian

thermo          1000
thermo_style    custom step temp press density

# Minimization
minimize        1.0e-4 1.0e-6 10000 100000
Generated 0 of 1 mixed pair_coeff terms from geometric mixing rule
Step          Temp          Press         Density
0   423.15         3.6656603e+15  6.0398583
Loop time of 0.161629 on 1 procs for 228 steps with 1000 atoms

Minimization stats:
  Stopping criterion = energy tolerance
  Energy initial, next-to-last, final =
  Force two-norm initial, final = 2.4296568e+16 2.5839136
  Force max component initial, final = 1.36867e+16 0.8417325
  Final line search alpha, max atom move = 0.04494336 0.037830287
  Iterations, force evaluations = 228 314

reset_timestep  0

# Equilibration (50000 steps - same as reference)
timestep        2.0
fix             nvt all nvt temp 423.15 423.15 100.0
run             50000
Generated 0 of 1 mixed pair_coeff terms from geometric mixing rule
Step          Temp          Press         Density
0   423.15        -3962.602       6.0398583
Averages over the last 26 of 51 rows, steps 25000 to 50000:
Temp Press Density
423.657 13985.1 6.03986
Loop time of 18.1501 on 1 procs for 50000 steps with 1000 atoms

unfix           nvt
reset_timestep  0

# Production (100000 steps - same as reference)
fix             nvt all nvt temp 423.15 423.15 100.0
compute         myrdf all rdf 200 1 1 2 2 1 2 cutoff 12.0
# Consistent averaging over full run (Nevery=100, Nrepeat=1000, Nfreq=100000)
fix             rdfout all ave/time 100 1000 100000 c_myrdf[*] file grid_outputs/out_s90_e125.rdf mode vector

run             100000
Generated 0 of 1 mixed pair_coeff terms from geometric mixing rule
Step          Temp          Press         Density
0   413.52126      15319.531      6.0398583
Averages over the last 51 of 101 rows, steps 50000 to 100000:
Temp Press Density
424.473 13989.1 6.03986
Loop time of 67.3474 on 1 procs for 100000 steps with 1000 atoms
