LAMMPS (22 Jul 2025 - Update 2)
KOKKOS mode with Kokkos version 4.6.2 is enabled
  will use up to 1 GPU(s) per node
package kokkos
# Bimodal Ga Grid Search V2: Ga1 fraction = 0.50
# Ga1-Ga1 sigma = 2.9700 A (x1.1)
# Ga2-Ga2 sigma = 2.4300 A (x0.9)
# Ga1-Ga2 sigma = 2.9700 A (x1.1) << KEY CHANGE
# Epsilon = 0.4300 kcal/mol (fixed)

# KOKKOS Initialization
package         kokkos neigh full newton off

units           real
atom_style      atomic
boundary        p p p

read_data       inputs/data.ga_base_2types
Reading data file ...
  orthogonal box = (0 0 0) to (26.762877 26.762877 26.762877)
  reading atoms ...
  1000 atoms

# Set type fractions: Ga1=0.50, Ga2=0.50
# First set all to type 1, then convert fraction to type 2
set             group all type 1
Setting atom values ...
  1000 settings made for type
set             group all type/fraction 2 0.50 18445
Setting atom values ...
  496 settings made for type/fraction

# Force Field (LJ)
pair_style      lj/cut/kk 12.0
pair_coeff      1 1 0.4300 2.9700
pair_coeff      2 2 0.4300 2.4300
pair_coeff      1 2 0.4300 2.9700

# Settings
neighbor        2.0 bin
neigh_modify    delay 0 every 1 check yes
velocity        all create 423.15 18445 dist gaussian

thermo          1000
thermo_style    custom step temp press density

# Minimization
minimize        1.0e-4 1.0e-6 10000 100000
Generated 0 of 1 mixed pair_coeff terms from geometric mixing rule
Step          Temp          Press         Density
0   423.15         1.8665846e+16  6.0398583
Loop time of 0.340722 on 1 procs for 272 steps with 1000 atoms

Minimization stats:
  Stopping criterion = energy tolerance
  Energy initial, next-to-last, final =
  Force two-norm initial, final = 1.2616968e+17 4.694389
  Force max component initial, final = 7.1093797e+16 0.86522687
  Final line search alpha, max atom move = 0.064037324 0.055406813
  Iterations, force evaluations = 272 420

reset_timestep  0

# Equilibration (50000 steps)
timestep        2.0
fix             nvt all nvt temp 423.15 423.15 100.0
run             50000
Generated 0 of 1 mixed pair_coeff terms from geometric mixing rule
Step          Temp          Press         Density
0   423.15         26656.542      6.0398583
Averages over the last 26 of 51 rows, steps 25000 to 50000:
Temp Press Density
425.111 37929 6.03986
Loop time of 34.0771 on 1 procs for 50000 steps with 1000 atoms

unfix           nvt
reset_timestep  0

# Production (100000 steps)
fix             nvt all nvt temp 423.15 423.15 100.0

# RDF calculation: 1-1, 2-2, 1-2 pairs
compute         myrdf all rdf 200 1 1 2 2 1 2 cutoff 12.0
fix             rdfout all ave/time 100 1000 100000 c_myrdf[*] file outputs/bimodal_search_v2/out_sig12_110_ga1_50.rdf mode vector

run             100000
Generated 0 of 1 mixed pair_coeff terms from geometric mixing rule
Step          Temp          Press         Density
0   428.5304       37293.751      6.0398583
Averages over the last 51 of 101 rows, steps 50000 to 100000:
Temp Press Density
422.329 35104.4 6.03986
Loop time of 132.072 on 1 procs for 100000 steps with 1000 atoms
