LAMMPS (22 Jul 2025 - Update 2)
KOKKOS mode with Kokkos version 4.6.2 is enabled
  will use up to 1 GPU(s) per node
package kokkos
# Bimodal Ga Grid Search V2: Ga1 fraction = 0.50
# Ga1-Ga1 sigma = 2.9700 A (x1.1)
# Ga2-Ga2 sigma = 2.4300 A (x0.9)
# Ga1-Ga2 sigma = 2.4300 A (x0.9) << KEY CHANGE
# Epsilon = 0.4300 kcal/mol (fixed)

# KOKKOS Initialization
package         kokkos neigh full newton off

units           real
atom_style      atomic
boundary        p p p

read_data       inputs/data.ga_base_2types
Reading data file ...
  orthogonal box = (0 0 0) to (26.762877 26.762877 26.762877)
  reading atoms ...
  1000 atoms

# Set type fractions: Ga1=0.50, Ga2=0.50
# First set all to type 1, then convert fraction to type 2
set             group all type 1
Setting atom values ...
  1000 settings made for type
set             group all type/fraction 2 0.50 18245
Setting atom values ...
  477 settings made for type/fraction

# Force Field (LJ)
pair_style      lj/cut/kk 12.0
pair_coeff      1 1 0.4300 2.9700
pair_coeff      2 2 0.4300 2.4300
pair_coeff      1 2 0.4300 2.4300

# Settings
neighbor        2.0 bin
neigh_modify    delay 0 every 1 check yes
velocity        all create 423.15 18245 dist gaussian

thermo          1000
thermo_style    custom step temp press density

# Minimization
minimize        1.0e-4 1.0e-6 10000 100000
Generated 0 of 1 mixed pair_coeff terms from geometric mixing rule
Step          Temp          Press         Density
0   423.15         1.8665483e+16  6.0398583
Loop time of 0.238269 on 1 procs for 202 steps with 1000 atoms

Minimization stats:
  Stopping criterion = energy tolerance
  Energy initial, next-to-last, final =
  Force two-norm initial, final = 1.2616968e+17 2.7517307
  Force max component initial, final = 7.1093797e+16 0.63655069
  Final line search alpha, max atom move = 0.11353794 0.072272652
  Iterations, force evaluations = 202 290

reset_timestep  0

# Equilibration (50000 steps)
timestep        2.0
fix             nvt all nvt temp 423.15 423.15 100.0
run             50000
Generated 0 of 1 mixed pair_coeff terms from geometric mixing rule
Step          Temp          Press         Density
0   423.15        -3161.1496      6.0398583
Averages over the last 26 of 51 rows, steps 25000 to 50000:
Temp Press Density
421.282 15142.5 6.03986
Loop time of 34.8312 on 1 procs for 50000 steps with 1000 atoms

unfix           nvt
reset_timestep  0

# Production (100000 steps)
fix             nvt all nvt temp 423.15 423.15 100.0

# RDF calculation: 1-1, 2-2, 1-2 pairs
compute         myrdf all rdf 200 1 1 2 2 1 2 cutoff 12.0
fix             rdfout all ave/time 100 1000 100000 c_myrdf[*] file outputs/bimodal_search_v2/out_sig12_090_ga1_50.rdf mode vector

run             100000
Generated 0 of 1 mixed pair_coeff terms from geometric mixing rule
Step          Temp          Press         Density
0   422.5957       15719.168      6.0398583
Averages over the last 51 of 101 rows, steps 50000 to 100000:
Temp Press Density
423.147 15163.1 6.03986
Loop time of 133.03 on 1 procs for 100000 steps with 1000 atoms
