LAMMPS (29 Sep 2021)
# =================================================================
# Ga-In MEAM simulation - 安定版
# Lost atoms エラー対策済み
#
# MPI並列実行:
# mpirun -np 32 lmp_mpi -in in.GaIn_stable.lmp
# =================================================================

dimension       3
units           metal
newton          on
boundary        p p p
atom_style      atomic

# =================================================================
# System setup (20^3 = 32,000 atoms)
# より安定なサイズに変更
# =================================================================
region          box1 block 0 100 0 100 0 100
create_box      2 box1
Created orthogonal box = (0.0000000 0.0000000 0.0000000) to (100.00000 100.00000 100.00000)

lattice         fcc 4.5
Lattice spacing in x,y,z = 4.5000000 4.5000000 4.5000000
create_atoms    1 region box1
Created 45563 atoms

# Masses
mass            1 69.723   # Ga
mass            2 114.818  # In

# Initial groups (before conversion)
group           Ga type 1
45563 atoms in group Ga
group           In type 2
0 atoms in group In

# Composition (50% In)
set             type 1 type/ratio 2 0.50 63934
Setting atom values ...
  22781 settings made for type/ratio

# CRITICAL: Redefine groups after type conversion!
group           Ga delete
group           In delete
group           Ga type 1
22782 atoms in group Ga
group           In type 2
22781 atoms in group In

# Report composition
variable        n_total equal count(all)
variable        n_Ga equal count(Ga)
variable        n_In equal count(In)
print           "=========================================="
==========================================
print           "System composition:"
System composition:
Total atoms: 45563
Ga atoms: 22782
In atoms: 22781
print           "Ga fraction: $(v_n_Ga/v_n_total)"
Ga fraction: 0.5000109738164738582
print           "In fraction: $(v_n_In/v_n_total)"
In fraction: 0.49998902618352608629
print           "=========================================="
==========================================

# =================================================================
# Potential
# =================================================================
pair_style      meam
pair_coeff      * * library.meam Ga In GaIn.meam Ga In
Reading MEAM library file library.meam with DATE: 2025-10-24

# =================================================================
# Settings - 安定性向上
# =================================================================
# タイムステップを小さく（0.001 → 0.0005 ps）
timestep        0.0005

thermo          1000
thermo_style    custom step temp etotal press vol enthalpy density cpu lx ly lz

# Neighbor設定を厳しく
neighbor        2.0 bin
neigh_modify    every 1 delay 0 check yes

# Lost atoms検出を有効化
thermo_modify   lost warn flush yes

# =================================================================
# Variables
# =================================================================
variable        T_low equal 300.0     # より低い初期温度
variable        T_high equal 600.0    # 高温（800K → 600K）
variable        T_target equal 500.0  # 目標温度
variable        energy equal etotal
variable        temperature equal temp
variable        pressure equal press

# =================================================================
# Output files
# =================================================================
fix             f1 all ave/time 10 100 1000 v_temperature v_energy v_pressure                 file out_energy.txt

# =================================================================
# STEP 0: 低温で初期緩和（重要！）
# =================================================================
print           ""

print           "=========================================="
==========================================
STEP 0: Initial relaxation at 300 K
print           "=========================================="
==========================================

velocity        all create 300 49931 dist gaussian

# まずNVTで緩和（より安定）
fix             f0 all nvt temp 300 300 0.1
run             10000
  update every 1 steps, delay 0 steps, check yes
Step Temp TotEng Press Volume Enthalpy Density CPU Lx Ly Lz
0          300    4646705.5    3342798.3      1000000    6733116.2    6.9810688            0          100          100          100
Averages over the last 6 of 11 rows, steps 5000 to 10000:
Temp TotEng Press Volume Enthalpy Density Lx Ly Lz
312.761 -6.67072e+06 -125371 1e+06 -6.74897e+06 6.98107 100 100 100
Loop time of 150.995 on 32 procs for 10000 steps with 45563 atoms

unfix           f0

# 次にNPTでボックスサイズを調整
fix             f0b all npt temp 300 300 0.1 iso 0.0 0.0 1.0
run             20000
Step Temp TotEng Press Volume Enthalpy Density CPU Lx Ly Lz
10000    344.99421   -6678290.6   -122150.51      1000000     -6754531    6.9810688            0          100          100          100
Averages over the last 11 of 21 rows, steps 20000 to 30000:
Temp TotEng Press Volume Enthalpy Density Lx Ly Lz
432.538 -6.73662e+06 43.7577 798779 -6.7366e+06 8.73983 92.7843 92.7843 92.7843
Loop time of 341.105 on 32 procs for 20000 steps with 45563 atoms

unfix           f0b

# =================================================================
# STEP 1: 徐々に昇温（300K → 600K）
# =================================================================
print           ""

print           "=========================================="
==========================================
STEP 1: Gradual heating 300 K -> 600 K
print           "=========================================="
==========================================

fix             f2 all npt temp 300 600 0.1 iso 0.0 0.0 1.0
run             50000
Step Temp TotEng Press Volume Enthalpy Density CPU Lx Ly Lz
30000    401.19367   -6739611.1    658.79519    793729.27   -6739284.8    8.7952769            0    92.588589    92.588589    92.588589
Averages over the last 26 of 51 rows, steps 55000 to 80000:
Temp TotEng Press Volume Enthalpy Density Lx Ly Lz
655.042 -6.76943e+06 -406.833 775365 -6.76963e+06 9.0037 91.8688 91.8688 91.8688
Loop time of 883.236 on 32 procs for 50000 steps with 45563 atoms

# =================================================================
# STEP 2: 高温で平衡化
# =================================================================
print           ""

print           "=========================================="
==========================================
STEP 2: Equilibration at 600 K
print           "=========================================="
==========================================

unfix           f2
fix             f2b all npt temp 600 600 0.1 iso 0.0 0.0 1.0
run             30000
Step Temp TotEng Press Volume Enthalpy Density CPU Lx Ly Lz
80000    725.81221   -6780850.7    564.73742    771079.46   -6780578.9    9.0536308            0    91.699375    91.699375    91.699375
Averages over the last 16 of 31 rows, steps 95000 to 110000:
Temp TotEng Press Volume Enthalpy Density Lx Ly Lz
780.635 -6.80323e+06 448.709 764374 -6.80302e+06 9.13308 91.4328 91.4328 91.4328
Loop time of 534.391 on 32 procs for 30000 steps with 45563 atoms

unfix           f2b

# =================================================================
# STEP 3: 徐々に冷却（600K → 500K）
# =================================================================
print           ""

print           "=========================================="
==========================================
STEP 3: Cooling 600 K -> 500 K
print           "=========================================="
==========================================

fix             f3 all npt temp 600 500 0.1 iso 0.0 0.0 1.0
run             50000
Step Temp TotEng Press Volume Enthalpy Density CPU Lx Ly Lz
110000    845.57263   -6810106.7    2961.2264    761965.48   -6808698.4    9.1619226            0    91.336654    91.336654    91.336654
Averages over the last 26 of 51 rows, steps 135000 to 160000:
Temp TotEng Press Volume Enthalpy Density Lx Ly Lz
605.73 -6.83731e+06 90.4856 756356 -6.83727e+06 9.2299 91.1119 91.1119 91.1119
Loop time of 896.558 on 32 procs for 50000 steps with 45563 atoms

# =================================================================
# STEP 4: 目標温度で平衡化
# =================================================================
print           ""

print           "=========================================="
==========================================
STEP 4: Equilibration at 500 K
print           "=========================================="
==========================================

unfix           f3
fix             f4 all npt temp 500 500 0.1 iso 0.0 0.0 1.0
run             100000
Step Temp TotEng Press Volume Enthalpy Density CPU Lx Ly Lz
160000    567.30104   -6839870.4   -513.80319    754652.71   -6840112.4    9.2507039            0    91.043521    91.043521    91.043521
Averages over the last 51 of 101 rows, steps 210000 to 260000:
Temp TotEng Press Volume Enthalpy Density Lx Ly Lz
570.003 -6.8485e+06 157.947 748168 -6.84843e+06 9.3309 90.782 90.782 90.782
Loop time of 1804.95 on 32 procs for 100000 steps with 45563 atoms

# =================================================================
# STEP 5: Production run
# =================================================================
print           ""

print           "=========================================="
==========================================
STEP 5: Production run at 500 K
print           "=========================================="
==========================================

# タイムステップを通常に戻す（オプション）
# timestep        0.001

dump            d1 all custom 10000 dump.prod.lammpstrj id type x y z vx vy vz
dump_modify     d1 element Ga In
run             100000
Step Temp TotEng Press Volume Enthalpy Density CPU Lx Ly Lz
260000    568.69011   -6852750.9    1677.9122    746139.65   -6851969.5    9.3562495            0    90.699879    90.699879    90.699879
Averages over the last 51 of 101 rows, steps 310000 to 360000:
Temp TotEng Press Volume Enthalpy Density Lx Ly Lz
552.019 -6.85934e+06 2.95986 743374 -6.85933e+06 9.39106 90.5877 90.5877 90.5877
Loop time of 1816.82 on 32 procs for 100000 steps with 45563 atoms

undump          d1

# =================================================================
# Final structure output
# =================================================================
print           ""

print           "=========================================="
==========================================
print           "Writing final structure"
Writing final structure
print           "=========================================="
==========================================

compute         c0 all property/atom type xs ys zs
dump            d2 all custom 1 dump.final.lammpstrj id type xs ys zs
dump_modify     d2 element Ga In
run             0
Step Temp TotEng Press Volume Enthalpy Density CPU Lx Ly Lz
360000    647.96845   -6861827.7   -26.238118       742953   -6861839.9    9.3963801            0    90.570573    90.570573    90.570573
Loop time of 5.39103e-06 on 32 procs for 0 steps with 45563 atoms

uncompute       c0
undump          d2

write_data      final_structure.data
System init for write_data ...
write_dump      all custom final.lammpstrj id type x y z vx vy vz                 modify element Ga In

# =================================================================
# Cleanup
# =================================================================
unfix           f1
unfix           f4

print           ""

print           "=========================================="
==========================================
print           "Simulation completed successfully!"
Simulation completed successfully!
Final temperature: 500 K
Total atoms: 45563
print           "=========================================="
==========================================
print           ""
